@<TRIPOS>MOLECULE
2FM6_single.pdb
 239 240 0 0 0
SMALL
GASTEIGER

@<TRIPOS>ATOM
      1 5H15        6.9700   62.1100   66.4400 H       1  MYC1        0.0230
      2 C80         6.8100   62.5600   67.4300 C.3     1  MYC1       -0.0653
      3 3H15        7.6400   63.2700   67.5600 H       1  MYC1        0.0230
      4 4H15        5.8900   63.1600   67.4400 H       1  MYC1        0.0230
      5 C79         6.6500   61.4800   68.5100 C.3     1  MYC1       -0.0559
      6 1H15        7.5700   60.9000   68.5900 H       1  MYC1        0.0263
      7 2H15        5.9400   60.7500   68.1100 H       1  MYC1        0.0263
      8 C78         6.1300   62.0000   69.8600 C.3     1  MYC1       -0.0533
      9 9H14        5.0700   62.2600   69.7900 H       1  MYC1        0.0265
     10 0H15        6.7000   62.9000   70.1200 H       1  MYC1        0.0265
     11 C77         6.4800   61.0800   71.0400 C.3     1  MYC1       -0.0531
     12 7H14        7.5200   60.8400   71.2700 H       1  MYC1        0.0265
     13 8H14        6.0700   60.0700   70.9000 H       1  MYC1        0.0265
     14 C76         5.8700   61.6700   72.3200 C.3     1  MYC1       -0.0531
     15 5H14        4.8300   62.0000   72.2100 H       1  MYC1        0.0265
     16 6H14        6.3500   62.6300   72.5700 H       1  MYC1        0.0265
     17 C75         5.9400   60.7500   73.5500 C.3     1  MYC1       -0.0531
     18 3H14        6.9300   60.2800   73.5500 H       1  MYC1        0.0265
     19 4H14        5.2400   59.9200   73.3800 H       1  MYC1        0.0265
     20 C74         5.5800   61.5300   74.8300 C.3     1  MYC1       -0.0531
     21 1H14        4.4800   61.6000   74.8400 H       1  MYC1        0.0265
     22 2H14        6.0200   62.5300   74.8700 H       1  MYC1        0.0265
     23 C73         5.9700   60.7600   76.1000 C.3     1  MYC1       -0.0531
     24 9H13        6.9900   60.3700   76.0300 H       1  MYC1        0.0265
     25 0H14        5.2200   59.9600   76.0500 H       1  MYC1        0.0265
     26 C72         5.6800   61.5300   77.4000 C.3     1  MYC1       -0.0531
     27 7H13        4.6200   61.8100   77.4900 H       1  MYC1        0.0265
     28 8H13        6.2700   62.4500   77.4800 H       1  MYC1        0.0265
     29 C71         5.8400   60.6500   78.6500 C.3     1  MYC1       -0.0531
     30 5H13        6.7900   60.1000   78.5600 H       1  MYC1        0.0265
     31 6H13        5.0000   59.9500   78.7200 H       1  MYC1        0.0265
     32 C70         5.7100   61.4700   79.9500 C.3     1  MYC1       -0.0531
     33 3H13        4.7100   61.8900   80.0400 H       1  MYC1        0.0265
     34 4H13        6.4200   62.2800   79.7300 H       1  MYC1        0.0265
     35 C69         6.1000   60.8000   81.2800 C.3     1  MYC1       -0.0531
     36 1H13        7.1400   60.4800   81.3500 H       1  MYC1        0.0265
     37 2H13        5.5000   59.8800   81.3300 H       1  MYC1        0.0265
     38 C68         5.8000   61.7200   82.4700 C.3     1  MYC1       -0.0531
     39 9H12        4.7400   62.0100   82.5000 H       1  MYC1        0.0265
     40 0H13        6.3400   62.6700   82.3600 H       1  MYC1        0.0265
     41 C67         6.2600   61.1800   83.8300 C.3     1  MYC1       -0.0531
     42 7H12        7.3400   61.3100   83.9400 H       1  MYC1        0.0265
     43 8H12        6.0600   60.1000   83.9100 H       1  MYC1        0.0265
     44 C66         5.5100   61.9700   84.9200 C.3     1  MYC1       -0.0531
     45 5H12        4.4300   61.9000   84.7800 H       1  MYC1        0.0265
     46 6H12        5.6200   63.0600   84.8600 H       1  MYC1        0.0265
     47 C65         5.7700   61.4700   86.3500 C.3     1  MYC1       -0.0531
     48 3H12        6.7500   61.8200   86.7000 H       1  MYC1        0.0265
     49 4H12        5.9200   60.3800   86.2900 H       1  MYC1        0.0265
     50 C64         4.6500   61.7500   87.3600 C.3     1  MYC1       -0.0531
     51 1H12        3.6900   61.2500   87.2000 H       1  MYC1        0.0265
     52 2H12        4.4800   62.8300   87.2800 H       1  MYC1        0.0265
     53 C63         5.1700   61.4400   88.7700 C.3     1  MYC1       -0.0530
     54 9H11        6.1800   61.8300   88.9000 H       1  MYC1        0.0265
     55 0H12        5.2000   60.3500   88.9400 H       1  MYC1        0.0265
     56 C62         4.2100   61.9200   89.8800 C.3     1  MYC1       -0.0528
     57 7H11        3.2500   61.4200   89.7500 H       1  MYC1        0.0265
     58 8H11        4.0400   63.0000   89.8300 H       1  MYC1        0.0265
     59 C61         4.7300   61.6100   91.2900 C.3     1  MYC1       -0.0499
     60 5H11        5.7800   61.9300   91.2600 H       1  MYC1        0.0268
     61 6H11        4.6600   60.5300   91.4300 H       1  MYC1        0.0268
     62 C60         3.9900   62.3000   92.4300 C.3     1  MYC1       -0.0379
     63 4H11        2.9000   62.3200   92.3700 H       1  MYC1        0.0304
     64 C58         4.5900   62.0700   93.7900 C.3     1  MYC1       -0.0379
     65 1H11        5.5800   61.6200   93.8400 H       1  MYC1        0.0304
     66 C59         4.5300   63.4600   93.2100 C.3     1  MYC1       -0.0469
     67 2H11        3.8300   64.2100   93.5600 H       1  MYC1        0.0271
     68 3H11        5.4400   63.9300   92.8300 H       1  MYC1        0.0271
     69 C57         3.8100   61.7700   95.0700 C.3     1  MYC1       -0.0499
     70 9H10        3.5700   60.7100   95.1900 H       1  MYC1        0.0268
     71 0H11        2.8900   62.3500   95.1000 H       1  MYC1        0.0268
     72 C56         4.6100   62.1100   96.3400 C.3     1  MYC1       -0.0528
     73 7H10        4.6700   63.1900   96.4800 H       1  MYC1        0.0265
     74 8H10        5.6500   61.7600   96.2300 H       1  MYC1        0.0265
     75 C55         3.8500   61.6300   97.5900 C.3     1  MYC1       -0.0530
     76 5H10        4.0300   60.5500   97.5800 H       1  MYC1        0.0265
     77 6H10        2.7700   61.7400   97.4700 H       1  MYC1        0.0265
     78 C54         4.3400   62.3200   98.8700 C.3     1  MYC1       -0.0531
     79 3H10        4.1600   63.4000   98.8800 H       1  MYC1        0.0265
     80 4H10        5.4300   62.2400   98.9700 H       1  MYC1        0.0265
     81 C53         3.7100   61.7200  100.1400 C.3     1  MYC1       -0.0531
     82 1H10        3.8100   60.6300  100.1400 H       1  MYC1        0.0265
     83 2H10        2.6400   61.9700  100.1500 H       1  MYC1        0.0265
     84 C52         4.3200   62.4900  101.3200 C.3     1  MYC1       -0.0531
     85 H99         4.2100   63.5800  101.2300 H       1  MYC1        0.0265
     86 0H10        5.3900   62.2900  101.2900 H       1  MYC1        0.0265
     87 C51         3.7200   62.0200  102.6600 C.3     1  MYC1       -0.0531
     88 H97         3.8000   60.9300  102.5800 H       1  MYC1        0.0265
     89 H98         2.6900   62.3800  102.6700 H       1  MYC1        0.0265
     90 C50         4.4800   62.4100  103.9400 C.3     1  MYC1       -0.0531
     91 H95         4.0900   63.3700  104.3300 H       1  MYC1        0.0265
     92 H96         5.5100   62.6100  103.6200 H       1  MYC1        0.0265
     93 C49         4.3400   61.4500  105.1300 C.3     1  MYC1       -0.0531
     94 H93         4.9600   60.5700  104.9200 H       1  MYC1        0.0265
     95 H94         3.2500   61.2800  105.1800 H       1  MYC1        0.0265
     96 C48         4.6400   62.0600  106.5100 C.3     1  MYC1       -0.0531
     97 H91         4.1700   63.0300  106.7200 H       1  MYC1        0.0265
     98 H92         5.7000   62.3400  106.5700 H       1  MYC1        0.0265
     99 C47         4.1400   61.1700  107.6600 C.3     1  MYC1       -0.0531
    100 H89         4.6200   60.1900  107.6200 H       1  MYC1        0.0265
    101 H90         3.0700   61.0400  107.4900 H       1  MYC1        0.0265
    102 C46         4.2500   61.7000  109.1000 C.3     1  MYC1       -0.0530
    103 H87         3.5000   62.5000  109.1600 H       1  MYC1        0.0265
    104 H88         5.2300   62.1700  109.2500 H       1  MYC1        0.0265
    105 C45         4.0400   60.6000  110.1500 C.3     1  MYC1       -0.0528
    106 H85         4.8500   59.8600  110.1400 H       1  MYC1        0.0265
    107 H86         3.1700   59.9400  109.9900 H       1  MYC1        0.0265
    108 C44         3.9900   61.1400  111.5900 C.3     1  MYC1       -0.0499
    109 H83         3.6500   60.3500  112.2700 H       1  MYC1        0.0268
    110 H84         3.1400   61.8400  111.6500 H       1  MYC1        0.0268
    111 C18         5.2100   61.8800  112.1200 C.3     1  MYC1       -0.0379
    112 H31         6.1600   61.3700  111.9900 H       1  MYC1        0.0304
    113 C17         5.1700   63.3700  111.8900 C.3     1  MYC1       -0.0379
    114 H30         4.2800   63.6500  111.3300 H       1  MYC1        0.0304
    115 C19         5.0500   62.8200  113.2900 C.3     1  MYC1       -0.0469
    116 H32         4.0700   62.8800  113.7500 H       1  MYC1        0.0271
    117 H33         5.9600   62.9800  113.8700 H       1  MYC1        0.0271
    118 C16         6.4400   64.0400  111.4000 C.3     1  MYC1       -0.0499
    119 H28         6.9900   63.3900  110.7000 H       1  MYC1        0.0268
    120 H29         7.2100   64.2500  112.1600 H       1  MYC1        0.0268
    121 C15         6.2400   65.4600  110.8500 C.3     1  MYC1       -0.0528
    122 H26         7.2500   65.8600  110.7500 H       1  MYC1        0.0265
    123 H27         5.6800   65.9900  111.6300 H       1  MYC1        0.0265
    124 C14         5.4800   65.4800  109.5100 C.3     1  MYC1       -0.0530
    125 H24         4.4800   65.1400  109.8000 H       1  MYC1        0.0265
    126 H25         5.9100   64.7800  108.7800 H       1  MYC1        0.0265
    127 C13         5.4500   66.8700  108.8500 C.3     1  MYC1       -0.0531
    128 H22         6.5000   67.1500  108.6800 H       1  MYC1        0.0265
    129 H23         5.0600   67.5900  109.5800 H       1  MYC1        0.0265
    130 C12         4.6700   66.9400  107.5300 C.3     1  MYC1       -0.0531
    131 H20         3.6800   66.5200  107.7300 H       1  MYC1        0.0265
    132 H21         5.2300   66.2800  106.8500 H       1  MYC1        0.0265
    133 C11         4.5400   68.4000  107.0600 C.3     1  MYC1       -0.0531
    134 H18         5.5200   68.8800  107.0400 H       1  MYC1        0.0265
    135 H19         4.0300   68.9200  107.8700 H       1  MYC1        0.0265
    136 C10         3.8400   68.5400  105.6900 C.3     1  MYC1       -0.0531
    137 H16         3.9500   69.5800  105.3400 H       1  MYC1        0.0265
    138 H17         2.7700   68.3300  105.7800 H       1  MYC1        0.0265
    139 C9          4.4100   67.7000  104.5400 C.3     1  MYC1       -0.0531
    140 H14         4.2700   66.6500  104.8500 H       1  MYC1        0.0265
    141 H15         5.5000   67.8100  104.5400 H       1  MYC1        0.0265
    142 C8          3.9600   68.0400  103.1100 C.3     1  MYC1       -0.0531
    143 H12         4.0800   69.1300  103.0800 H       1  MYC1        0.0265
    144 H13         2.9000   67.7900  102.9900 H       1  MYC1        0.0265
    145 C7          4.8300   67.3100  102.0700 C.3     1  MYC1       -0.0531
    146 H10         4.6800   66.2400  102.2000 H       1  MYC1        0.0265
    147 H11         5.8600   67.5800  102.3300 H       1  MYC1        0.0265
    148 C6          4.5600   67.7100  100.6100 C.3     1  MYC1       -0.0530
    149 H8          4.7300   68.7800  100.4000 H       1  MYC1        0.0265
    150 H9          3.4700   67.6300  100.4600 H       1  MYC1        0.0265
    151 C5          5.2800   66.7700   99.6300 C.3     1  MYC1       -0.0507
    152 H6          4.8300   65.7700   99.7000 H       1  MYC1        0.0266
    153 H7          6.2500   66.6300  100.1100 H       1  MYC1        0.0266
    154 C4          5.4400   67.2300   98.1700 C.3     1  MYC1       -0.0261
    155 H4          6.3700   66.7400   97.8500 H       1  MYC1        0.0290
    156 H5          5.7800   68.2700   98.1400 H       1  MYC1        0.0290
    157 C2          4.2700   67.0400   97.2000 C.3     1  MYC1        0.0681
    158 H2          4.7400   66.7400   96.2500 H       1  MYC1        0.0601
    159 O3          3.4500   65.9300   97.5500 O.3     1  MYC1       -0.3910
    160 H3          3.9900   65.4700   98.2200 H       1  MYC1        0.2098
    161 C1          3.3900   68.2400   96.8200 C.3     1  MYC1        0.0821
    162 H1          4.1100   69.0400   96.6000 H       1  MYC1        0.0439
    163 C81         2.5100   68.5700   98.0200 C.2     1  MYC1        0.3103
    164 O82         1.4400   68.0300   98.2500 O.2     1  MYC1       -0.2506
    165 O83         2.6900   69.7900   98.5500 O.3     1  MYC1       -0.4804
    166 6H15        1.8800   70.0200   99.0500 H       1  MYC1        0.2951
    167 C20         2.5200   68.0800   95.5600 C.3     1  MYC1       -0.0377
    168 H34         1.9800   67.1300   95.6400 H       1  MYC1        0.0274
    169 H35         1.8300   68.9300   95.4700 H       1  MYC1        0.0274
    170 C21         3.3000   68.0300   94.2400 C.3     1  MYC1       -0.0522
    171 H36         3.7500   69.0200   94.0700 H       1  MYC1        0.0265
    172 H37         4.1200   67.3100   94.3000 H       1  MYC1        0.0265
    173 C22         2.3700   67.7800   93.0400 C.3     1  MYC1       -0.0530
    174 H38         1.6300   67.0100   93.2700 H       1  MYC1        0.0265
    175 H39         1.8100   68.7000   92.8200 H       1  MYC1        0.0265
    176 C23         3.1400   67.3300   91.7800 C.3     1  MYC1       -0.0531
    177 H40         3.9800   68.0300   91.6600 H       1  MYC1        0.0265
    178 H41         3.5900   66.3400   91.9000 H       1  MYC1        0.0265
    179 C24         2.2900   67.3700   90.5000 C.3     1  MYC1       -0.0531
    180 H42         1.5800   66.5500   90.6200 H       1  MYC1        0.0265
    181 H43         1.7800   68.3400   90.4100 H       1  MYC1        0.0265
    182 C25         3.1000   67.2800   89.1900 C.3     1  MYC1       -0.0531
    183 H44         3.9500   67.9700   89.2100 H       1  MYC1        0.0265
    184 H45         3.5400   66.2800   89.1000 H       1  MYC1        0.0265
    185 C26         2.2800   67.6100   87.9300 C.3     1  MYC1       -0.0531
    186 H46         1.3400   67.0400   87.9000 H       1  MYC1        0.0265
    187 H47         2.0600   68.6700   88.1000 H       1  MYC1        0.0265
    188 C27         2.9300   67.3900   86.5500 C.3     1  MYC1       -0.0531
    189 H48         3.9800   67.7000   86.6500 H       1  MYC1        0.0265
    190 H49         3.0000   66.3100   86.3700 H       1  MYC1        0.0265
    191 C28         2.2200   68.0400   85.3500 C.3     1  MYC1       -0.0531
    192 H50         1.1300   68.0000   85.4000 H       1  MYC1        0.0265
    193 H51         2.3500   69.1300   85.4200 H       1  MYC1        0.0265
    194 C29         2.8100   67.5300   84.0200 C.3     1  MYC1       -0.0531
    195 H52         3.8000   67.9800   83.9400 H       1  MYC1        0.0265
    196 H53         2.9900   66.4400   84.0600 H       1  MYC1        0.0265
    197 C30         2.0800   67.9900   82.7500 C.3     1  MYC1       -0.0531
    198 H54         1.0700   67.6100   82.9300 H       1  MYC1        0.0265
    199 H55         2.0500   69.0800   82.8600 H       1  MYC1        0.0265
    200 C31         2.5700   67.5100   81.3700 C.3     1  MYC1       -0.0531
    201 H56         3.5900   67.8600   81.1400 H       1  MYC1        0.0265
    202 H57         2.7200   66.4300   81.3400 H       1  MYC1        0.0265
    203 C32         1.5400   67.9600   80.3200 C.3     1  MYC1       -0.0531
    204 H58         0.5500   67.5200   80.4300 H       1  MYC1        0.0265
    205 H59         1.4500   69.0500   80.4400 H       1  MYC1        0.0265
    206 C33         2.0000   67.6100   78.8900 C.3     1  MYC1       -0.0531
    207 H60         2.9800   68.0900   78.8000 H       1  MYC1        0.0265
    208 H61         2.1400   66.5300   78.7600 H       1  MYC1        0.0265
    209 C34         1.0500   68.0500   77.7700 C.3     1  MYC1       -0.0531
    210 H62         0.0700   67.5700   77.8700 H       1  MYC1        0.0265
    211 H63         0.8900   69.1300   77.7900 H       1  MYC1        0.0265
    212 C35         1.5000   67.5800   76.3700 C.3     1  MYC1       -0.0531
    213 H64         2.5500   67.8200   76.1800 H       1  MYC1        0.0265
    214 H65         1.5000   66.4900   76.3900 H       1  MYC1        0.0265
    215 C36         0.6900   68.0800   75.1600 C.3     1  MYC1       -0.0531
    216 H66        -0.3500   67.8300   75.4200 H       1  MYC1        0.0265
    217 H67         0.8100   69.1700   75.1300 H       1  MYC1        0.0265
    218 C37         1.1800   67.4100   73.8600 C.3     1  MYC1       -0.0531
    219 H68         2.2700   67.5100   73.8200 H       1  MYC1        0.0265
    220 H69         0.8700   66.3600   73.9400 H       1  MYC1        0.0265
    221 C38         0.5700   67.9600   72.5600 C.3     1  MYC1       -0.0531
    222 H70        -0.4500   67.5500   72.5400 H       1  MYC1        0.0265
    223 H71         0.5600   69.0600   72.5600 H       1  MYC1        0.0265
    224 C39         1.3400   67.4800   71.3200 C.3     1  MYC1       -0.0531
    225 H72         2.3900   67.7600   71.4300 H       1  MYC1        0.0265
    226 H73         1.2400   66.3900   71.3100 H       1  MYC1        0.0265
    227 C40         0.6800   67.9300   70.0100 C.3     1  MYC1       -0.0531
    228 H74        -0.3500   67.5300   70.0200 H       1  MYC1        0.0265
    229 H75         0.6000   69.0200   69.8700 H       1  MYC1        0.0265
    230 C41         1.4200   67.2700   68.8400 C.3     1  MYC1       -0.0533
    231 H76         2.3600   67.8200   68.8000 H       1  MYC1        0.0265
    232 H77         1.8000   66.2500   69.0100 H       1  MYC1        0.0265
    233 C42         0.6000   67.2600   67.5400 C.3     1  MYC1       -0.0559
    234 H78        -0.2300   66.5600   67.6300 H       1  MYC1        0.0263
    235 H79         0.1500   68.2300   67.3200 H       1  MYC1        0.0263
    236 C43         1.4800   66.7700   66.3700 C.3     1  MYC1       -0.0653
    237 H80         0.9300   66.7000   65.4200 H       1  MYC1        0.0230
    238 H81         1.9100   65.7800   66.5600 H       1  MYC1        0.0230
    239 H82         2.3400   67.4000   66.1400 H       1  MYC1        0.0230
@<TRIPOS>BOND
     1   237   236    1
     2   239   236    1
     3   236   238    1
     4   236   233    1
     5     1     2    1
     6   235   233    1
     7     2     4    1
     8     2     3    1
     9     2     5    1
    10   233   234    1
    11   233   230    1
    12     7     5    1
    13     5     6    1
    14     5     8    1
    15   231   230    1
    16   230   232    1
    17   230   227    1
    18     9     8    1
    19     8    10    1
    20     8    11    1
    21   229   227    1
    22   227   228    1
    23   227   224    1
    24    13    11    1
    25    11    12    1
    26    11    14    1
    27   226   224    1
    28   224   225    1
    29   224   221    1
    30    15    14    1
    31    14    16    1
    32    14    17    1
    33   222   221    1
    34   221   223    1
    35   221   218    1
    36    19    17    1
    37    18    17    1
    38    17    20    1
    39   219   218    1
    40   218   220    1
    41   218   215    1
    42    20    21    1
    43    20    22    1
    44    20    23    1
    45   217   215    1
    46   215   216    1
    47   215   212    1
    48    24    23    1
    49    25    23    1
    50    23    26    1
    51   213   212    1
    52   212   214    1
    53   212   209    1
    54    26    28    1
    55    26    27    1
    56    26    29    1
    57   209   211    1
    58   209   210    1
    59   209   206    1
    60    30    29    1
    61    29    31    1
    62    29    32    1
    63   208   206    1
    64   207   206    1
    65   206   203    1
    66    34    32    1
    67    32    33    1
    68    32    35    1
    69   203   204    1
    70   203   205    1
    71   203   200    1
    72   201   200    1
    73    35    37    1
    74    35    36    1
    75    35    38    1
    76   202   200    1
    77   200   197    1
    78    40    38    1
    79    38    39    1
    80    38    41    1
    81   197   199    1
    82   197   198    1
    83   197   194    1
    84    41    43    1
    85    41    42    1
    86    41    44    1
    87   195   194    1
    88   194   196    1
    89   194   191    1
    90    45    44    1
    91    46    44    1
    92    44    47    1
    93   191   192    1
    94   191   193    1
    95   191   188    1
    96    49    47    1
    97    47    48    1
    98    47    50    1
    99   190   188    1
   100   188   189    1
   101   188   185    1
   102    51    50    1
   103    52    50    1
   104    50    53    1
   105   186   185    1
   106   185   187    1
   107   185   182    1
   108    53    54    1
   109    53    55    1
   110    53    56    1
   111   184   182    1
   112   182   183    1
   113   182   179    1
   114    57    56    1
   115    58    56    1
   116    56    59    1
   117   181   179    1
   118   179   180    1
   119   179   176    1
   120    60    59    1
   121    59    61    1
   122    59    62    1
   123   177   176    1
   124   176   178    1
   125   176   173    1
   126    63    62    1
   127    62    66    1
   128    62    64    1
   129   175   173    1
   130    68    66    1
   131   173   174    1
   132   173   170    1
   133    66    67    1
   134    66    64    1
   135    64    65    1
   136    64    69    1
   137   171   170    1
   138   170   172    1
   139   170   167    1
   140    69    71    1
   141    69    70    1
   142    69    72    1
   143   169   167    1
   144   167   168    1
   145   167   161    1
   146    74    72    1
   147   158   157    1
   148    72    73    1
   149    72    75    1
   150   162   161    1
   151   161   157    1
   152   161   163    1
   153   157   159    1
   154   157   154    1
   155    77    75    1
   156   159   160    1
   157    76    75    1
   158    75    78    1
   159   155   154    1
   160   163   164    2
   161   163   165    1
   162   156   154    1
   163   154   151    1
   164   165   166    1
   165    78    79    1
   166    78    80    1
   167    78    81    1
   168   151   152    1
   169   151   153    1
   170   151   148    1
   171    81    82    1
   172    81    83    1
   173    81    84    1
   174   149   148    1
   175   150   148    1
   176   148   145    1
   177    85    84    1
   178    86    84    1
   179    84    87    1
   180   145   146    1
   181   145   147    1
   182   145   142    1
   183    88    87    1
   184    87    89    1
   185    87    90    1
   186   144   142    1
   187   143   142    1
   188   142   139    1
   189    92    90    1
   190    90    91    1
   191    90    93    1
   192   139   141    1
   193   139   140    1
   194   139   136    1
   195    94    93    1
   196    93    95    1
   197    93    96    1
   198   137   136    1
   199   136   138    1
   200   136   133    1
   201    96    98    1
   202    96    97    1
   203    96    99    1
   204   132   130    1
   205   134   133    1
   206   133   130    1
   207   133   135    1
   208   101    99    1
   209   130   131    1
   210   130   127    1
   211   100    99    1
   212    99   102    1
   213   128   127    1
   214   126   124    1
   215   127   124    1
   216   127   129    1
   217   102   103    1
   218   102   104    1
   219   102   105    1
   220   124   125    1
   221   124   121    1
   222   107   105    1
   223   106   105    1
   224   105   108    1
   225   119   118    1
   226   122   121    1
   227   121   118    1
   228   121   123    1
   229   114   113    1
   230   118   113    1
   231   118   120    1
   232   108   110    1
   233   108   111    1
   234   108   109    1
   235   113   111    1
   236   113   115    1
   237   112   111    1
   238   111   115    1
   239   115   116    1
   240   115   117    1
